% Physics -------------------------------------------------------------- %
SOLVER= RANS
KIND_TURB_MODEL= SA
RESTART_SOL= NO

OBJECTIVE_FUNCTION= LIFT
MULTIZONE= YES
WRT_ZONE_CONV= YES
WRT_ZONE_HIST= YES
%
% Compressible free-stream conditions ---------------------------------- %
MACH_NUMBER= 0.5
AOA= 0.0
INIT_OPTION= TD_CONDITIONS
FREESTREAM_OPTION= TEMPERATURE_FS
FREESTREAM_PRESSURE= 101325.0
FREESTREAM_TEMPERATURE= 300.0
REYNOLDS_LENGTH= 1
%
% Fluid properties ----------------------------------------------------- %
FLUID_MODEL= IDEAL_GAS
GAMMA_VALUE= 1.4
GAS_CONSTANT= 287.87
VISCOSITY_MODEL= CONSTANT_VISCOSITY
MU_CONSTANT= 1.02E-5
%
% Boundary conditions -------------------------------------------------- %
MARKER_HEATFLUX= ( airfoil, 0.0 )
MARKER_FAR= ( farfield )
%
% Post processing and monitoring --------------------------------------- %
REF_ORIGIN_MOMENT_X= -0.25
REF_ORIGIN_MOMENT_Y= 0.00
REF_ORIGIN_MOMENT_Z= 0.00
REF_LENGTH= 1
REF_AREA= 1
MARKER_PLOTTING= ( airfoil )
MARKER_MONITORING= ( airfoil )
MARKER_DESIGNING= ( airfoil )
%
% Common numerics settings --------------------------------------------- %
EDGE_COLORING_GROUP_SIZE= 0
REF_DIMENSIONALIZATION= FREESTREAM_VEL_EQ_MACH
NUM_METHOD_GRAD= GREEN_GAUSS
CFL_NUMBER= 500
CFL_ADAPT= NO
CFL_ADAPT_PARAM= (0.8, 1.2, 1.0, 10000, 0.5)
%
% Flow numerics -------------------------------------------------------- %
CONV_NUM_METHOD_FLOW= JST
JST_SENSOR_COEFF= (0.5, 0.01)
TIME_DISCRE_FLOW= EULER_IMPLICIT
%
% Turbulence numerics -------------------------------------------------- %
CONV_NUM_METHOD_TURB= SCALAR_UPWIND
TIME_DISCRE_TURB= EULER_IMPLICIT
CFL_REDUCTION_TURB= 1.0
%
% Linear solver -------------------------------------------------------- %
LINEAR_SOLVER= FGMRES
LINEAR_SOLVER_PREC= ILU
LINEAR_SOLVER_ERROR= 1e-10
LINEAR_SOLVER_ITER= 20
DISCADJ_LIN_SOLVER= SMOOTHER
LINEAR_SOLVER_RESTART_FREQUENCY= 10
LINEAR_SOLVER_SMOOTHER_RELAXATION= 0.7
PASTIX_FACTORIZATION_FREQUENCY= 0
NEWTON_KRYLOV= YES
QUASI_NEWTON_NUM_SAMPLES= 1000
RELAXATION_FACTOR_ADJOINT= 1.0
% multigrid
MGLEVEL= 0
MGCYCLE= V_CYCLE
MG_PRE_SMOOTH= ( 1, 1, 1, 2 )
MG_POST_SMOOTH= ( 0, 0, 0, 0 )
MG_CORRECTION_SMOOTH= ( 0, 0, 0, 0 )
MG_DAMP_RESTRICTION= 0.7
MG_DAMP_PROLONGATION= 0.7
%
% Convergence criteria ------------------------------------------------- %
OUTER_ITER= 10
INNER_ITER= 100
CONV_CRITERIA= RESIDUAL
CONV_STARTITER= 0
CONV_RESIDUAL_MINVAL= -7
%
% In\Out --------------------------------------------------------------- %
MESH_FILENAME= mesh.su2
MESH_FORMAT= SU2
SCREEN_OUTPUT= INNER_ITER, WALL_TIME, RMS_ADJ_DENSITY, RMS_ADJ_ENERGY, RMS_ADJ_NU_TILDE, LINSOL_ITER, LINSOL_RESIDUAL
HISTORY_OUTPUT= ITER, RMS_RES, LINSOL
OUTPUT_FILES= RESTART, PARAVIEW, SURFACE_PARAVIEW

