SOLVER= MULTIPHYSICS
MATH_PROBLEM= DISCRETE_ADJOINT
CONFIG_LIST=(configFlow.cfg, configFEA.cfg)

MARKER_ZONE_INTERFACE= (pressure_side,pressure_side_s, suction_side,suction_side_s)

CONSERVATIVE_INTERPOLATION= NO

FULL_TAPE= YES

ADJ_FSI= NO
OUTER_ITER= 8
MESH_FILENAME= mesh.su2

OBJECTIVE_FUNCTION= DRAG

WRT_ZONE_CONV= YES
